test/data/dist/ieee123/ieee123_no_regs_no_sw_VLN_Node.Txt

LINE-GROUND and LINE-LINE VOLTAGES BY BUS & NODE

Bus       Node    VLN (kV)   Angle      pu     Base kV    Node-Node   VLL (kV)  Angle      pu

SOURCEBUS 1       65.824 /_    0.0    0.9914   115.000        1-2     114.51 /_   30.1   0.99576
   -      2       66.357 /_ -120.1   0.99942   115.000        2-3     114.85 /_  -90.3   0.99873
   -      3       66.022 /_  119.6   0.99438   115.000        3-1     113.93 /_  149.7    0.9907
150 ..... 1       1.2644 /_  -66.1   0.52643     4.160        1-2     2.7346 /_    0.1   0.65737
   -      2       2.5076 /_ -152.4     1.044     4.160        2-3     4.3628 /_ -123.0    1.0487
   -      3       2.5047 /_   86.6    1.0429     4.160        3-1     3.6742 /_   95.6   0.88321
1 ....... 1       1.0028 /_  -85.2   0.41753     4.160        1-2     2.4904 /_    2.1   0.59864
   -      2       2.6405 /_ -155.6    1.0994     4.160        2-3     4.3639 /_ -123.9     1.049
   -      3       2.5338 /_   89.4     1.055     4.160        3-1     3.5334 /_   90.9   0.84939
2 ....... 2         2.64 /_ -155.6    1.0992     4.160
3 ....... 3       2.5298 /_   89.4    1.0533     4.160
7 ....... 1      0.98889 /_  -85.4   0.41173     4.160        1-2     2.4769 /_    2.0   0.59541
   -      2       2.6241 /_ -155.9    1.0926     4.160        2-3      4.346 /_ -124.2    1.0447
   -      3       2.5268 /_   89.0     1.052     4.160        3-1     3.5123 /_   90.6    0.8443
4 ....... 3       2.5286 /_   89.4    1.0528     4.160
5 ....... 3       2.5266 /_   89.4     1.052     4.160
6 ....... 3        2.525 /_   89.3    1.0513     4.160
8 ....... 1      0.97974 /_  -85.5   0.40792     4.160        1-2      2.468 /_    1.9   0.59327
   -      2       2.6132 /_ -156.2     1.088     4.160        2-3     4.3341 /_ -124.4    1.0419
   -      3       2.5221 /_   88.7    1.0501     4.160        3-1     3.4983 /_   90.3   0.84094
12 ...... 2       2.6125 /_ -156.2    1.0878     4.160
9 ....... 1      0.97829 /_  -85.5   0.40732     4.160
13 ...... 1      0.96723 /_  -85.7   0.40271     4.160        1-2     2.4553 /_    1.7   0.59022
   -      2       2.5972 /_ -156.5    1.0814     4.160        2-3     4.3167 /_ -124.7    1.0377
   -      3       2.5147 /_   88.3     1.047     4.160        3-1     3.4781 /_   90.0   0.83608
14 ...... 1      0.97665 /_  -85.6   0.40664     4.160
34 ...... 3       2.5124 /_   88.3     1.046     4.160
18 ...... 1      0.95651 /_  -85.5   0.39825     4.160        1-2      2.441 /_    1.5   0.58679
   -      2       2.5744 /_ -156.7    1.0719     4.160        2-3     4.2919 /_ -124.9    1.0317
   -      3       2.5053 /_   88.0    1.0431     4.160        3-1     3.4573 /_   89.8   0.83108
11 ...... 1      0.97601 /_  -85.6   0.40637     4.160
10 ...... 1      0.97633 /_  -85.6    0.4065     4.160
15 ...... 3       2.5115 /_   88.3    1.0457     4.160
16 ...... 3       2.5092 /_   88.3    1.0447     4.160
17 ...... 3       2.5104 /_   88.3    1.0452     4.160
19 ...... 1      0.95525 /_  -85.5   0.39773     4.160
21 ...... 1      0.95617 /_  -85.5   0.39811     4.160        1-2     2.4404 /_    1.5   0.58663
   -      2       2.5732 /_ -156.7    1.0714     4.160        2-3     4.2903 /_ -124.9    1.0313
   -      3       2.5034 /_   87.9    1.0423     4.160        3-1      3.455 /_   89.7   0.83053
20 ...... 1      0.95443 /_  -85.5   0.39739     4.160
22 ...... 2       2.5697 /_ -156.8    1.0699     4.160
23 ...... 1      0.95627 /_  -85.5   0.39815     4.160        1-2     2.4402 /_    1.5   0.58657
   -      2       2.5731 /_ -156.7    1.0714     4.160        2-3     4.2897 /_ -124.9    1.0312
   -      3       2.5015 /_   87.9    1.0415     4.160        3-1     3.4531 /_   89.7   0.83007
24 ...... 3       2.4982 /_   87.9    1.0401     4.160
25 ...... 1        0.956 /_  -85.5   0.39804     4.160        1-2     2.4398 /_    1.5   0.58649
   -      2       2.5731 /_ -156.7    1.0714     4.160        2-3     4.2893 /_ -124.9    1.0311
   -      3       2.5002 /_   87.9     1.041     4.160        3-1     3.4515 /_   89.7   0.82969
26 ...... 1      0.95597 /_  -85.5   0.39802     4.160
   -      3       2.4993 /_   87.8    1.0406     4.160        3-1     3.4506 /_   89.7   0.82946
28 ...... 1      0.95578 /_  -85.5   0.39795     4.160        1-2     2.4396 /_    1.5   0.58645
   -      2       2.5732 /_ -156.7    1.0714     4.160        2-3     4.2891 /_ -124.9     1.031
   -      3       2.4998 /_   87.9    1.0408     4.160        3-1     3.4509 /_   89.7   0.82954
27 ...... 1      0.95562 /_  -85.5   0.39788     4.160
   -      3       2.4994 /_   87.8    1.0406     4.160        3-1     3.4503 /_   89.7   0.82941
31 ...... 3       2.4979 /_   87.8      1.04     4.160
33 ...... 1      0.95436 /_  -85.5   0.39736     4.160
29 ...... 1      0.95582 /_  -85.5   0.39796     4.160        1-2     2.4395 /_    1.5   0.58643
   -      2       2.5731 /_ -156.7    1.0713     4.160        2-3     4.2889 /_ -125.0     1.031
   -      3        2.499 /_   87.8    1.0405     4.160        3-1     3.4501 /_   89.7   0.82936
30 ...... 1       0.9563 /_  -85.5   0.39816     4.160        1-2     2.4397 /_    1.5   0.58646
   -      2        2.573 /_ -156.7    1.0713     4.160        2-3     4.2886 /_ -125.0    1.0309
   -      3        2.498 /_   87.8      1.04     4.160        3-1     3.4495 /_   89.7    0.8292
250 ..... 1       0.9563 /_  -85.5   0.39816     4.160        1-2     2.4397 /_    1.5   0.58646
   -      2        2.573 /_ -156.7    1.0713     4.160        2-3     4.2886 /_ -125.0    1.0309
   -      3        2.498 /_   87.8      1.04     4.160        3-1     3.4495 /_   89.7    0.8292
32 ...... 3        2.497 /_   87.8    1.0397     4.160
35 ...... 1      0.95245 /_  -85.4   0.39656     4.160        1-2     2.4345 /_    1.4   0.58522
   -      2       2.5649 /_ -156.8    1.0679     4.160        2-3     4.2838 /_ -124.9    1.0298
   -      3       2.5041 /_   87.8    1.0426     4.160        3-1     3.4517 /_   89.7   0.82975
36 ...... 1      0.95083 /_  -85.4   0.39588     4.160        1-2     2.4332 /_    1.4   0.58491
   -      2        2.563 /_ -156.9    1.0671     4.160
40 ...... 1      0.94988 /_  -85.3   0.39549     4.160        1-2     2.4315 /_    1.4   0.58449
   -      2       2.5598 /_ -156.9    1.0658     4.160        2-3     4.2788 /_ -125.0    1.0286
   -      3       2.5023 /_   87.8    1.0419     4.160        3-1     3.4472 /_   89.6   0.82865
37 ...... 1      0.95008 /_  -85.4   0.39557     4.160
38 ...... 2       2.5614 /_ -156.9    1.0665     4.160
39 ...... 2       2.5604 /_ -156.9    1.0661     4.160
41 ...... 3       2.5013 /_   87.7    1.0414     4.160
42 ...... 1      0.94717 /_  -85.3   0.39436     4.160        1-2     2.4284 /_    1.4   0.58376
   -      2       2.5547 /_ -156.9    1.0637     4.160        2-3     4.2739 /_ -125.0    1.0274
   -      3       2.5009 /_   87.7    1.0413     4.160        3-1     3.4429 /_   89.6   0.82762
43 ...... 2       2.5514 /_ -156.9    1.0623     4.160
44 ...... 1      0.94548 /_  -85.2   0.39366     4.160        1-2     2.4263 /_    1.4   0.58325
   -      2       2.5513 /_ -156.9    1.0623     4.160        2-3     4.2705 /_ -125.0    1.0266
   -      3       2.4994 /_   87.6    1.0407     4.160        3-1     3.4396 /_   89.6   0.82683
45 ...... 1      0.94498 /_  -85.3   0.39345     4.160
47 ...... 1      0.94368 /_  -85.2   0.39291     4.160        1-2     2.4238 /_    1.3   0.58266
   -      2        2.547 /_ -157.0    1.0605     4.160        2-3     4.2663 /_ -125.1    1.0256
   -      3       2.4975 /_   87.5    1.0399     4.160        3-1     3.4357 /_   89.5   0.82588
46 ...... 1      0.94461 /_  -85.3    0.3933     4.160
48 ...... 1      0.94329 /_  -85.2   0.39275     4.160        1-2     2.4231 /_    1.3   0.58248
   -      2       2.5458 /_ -157.0      1.06     4.160        2-3     4.2653 /_ -125.1    1.0253
   -      3       2.4971 /_   87.5    1.0397     4.160        3-1     3.4348 /_   89.5   0.82567
49 ...... 1      0.94317 /_  -85.1    0.3927     4.160        1-2     2.4227 /_    1.3   0.58239
   -      2       2.5452 /_ -157.0    1.0597     4.160        2-3     4.2649 /_ -125.1    1.0252
   -      3        2.497 /_   87.5    1.0396     4.160        3-1     3.4345 /_   89.5    0.8256
50 ...... 1      0.94331 /_  -85.1   0.39275     4.160        1-2     2.4226 /_    1.3   0.58235
   -      2        2.545 /_ -157.0    1.0596     4.160        2-3     4.2647 /_ -125.1    1.0252
   -      3       2.4963 /_   87.5    1.0393     4.160        3-1     3.4339 /_   89.5   0.82546
51 ...... 1      0.94315 /_  -85.1   0.39269     4.160        1-2     2.4225 /_    1.3   0.58233
   -      2       2.5451 /_ -157.0    1.0597     4.160        2-3     4.2647 /_ -125.1    1.0252
   -      3       2.4963 /_   87.5    1.0394     4.160        3-1     3.4338 /_   89.5   0.82544
151 ..... 1      0.94315 /_  -85.1   0.39269     4.160        1-2     2.4225 /_    1.3   0.58233
   -      2       2.5451 /_ -157.0    1.0597     4.160        2-3     4.2647 /_ -125.1    1.0252
   -      3       2.4963 /_   87.5    1.0394     4.160        3-1     3.4338 /_   89.5   0.82544
52 ...... 1      0.95634 /_  -85.9   0.39818     4.160        1-2     2.4464 /_    1.5   0.58808
   -      2       2.5871 /_ -156.8    1.0772     4.160        2-3     4.3057 /_ -124.9     1.035
   -      3       2.5125 /_   88.0    1.0461     4.160        3-1      3.465 /_   89.7   0.83292
53 ...... 1      0.95115 /_  -86.1   0.39602     4.160        1-2     2.4421 /_    1.4   0.58704
   -      2       2.5821 /_ -157.0    1.0751     4.160        2-3     4.3002 /_ -125.1    1.0337
   -      3       2.5113 /_   87.9    1.0456     4.160        3-1     3.4586 /_   89.5   0.83139
54 ...... 1      0.94806 /_  -86.2   0.39473     4.160        1-2     2.4395 /_    1.4   0.58641
   -      2       2.5789 /_ -157.1    1.0738     4.160        2-3     4.2968 /_ -125.1    1.0329
   -      3       2.5105 /_   87.8    1.0453     4.160        3-1     3.4547 /_   89.4   0.83046
55 ...... 1      0.94767 /_  -86.2   0.39457     4.160        1-2     2.4392 /_    1.4   0.58635
   -      2       2.5785 /_ -157.1    1.0736     4.160        2-3     4.2964 /_ -125.2    1.0328
   -      3       2.5108 /_   87.8    1.0454     4.160        3-1     3.4546 /_   89.4   0.83042
57 ...... 1      0.94187 /_  -86.3   0.39216     4.160        1-2     2.4318 /_    1.2   0.58456
   -      2       2.5687 /_ -157.3    1.0695     4.160        2-3     4.2867 /_ -125.3    1.0305
   -      3       2.5091 /_   87.5    1.0447     4.160        3-1      3.447 /_   89.2    0.8286
56 ...... 1      0.94744 /_  -86.2   0.39448     4.160        1-2      2.439 /_    1.4   0.58631
   -      2       2.5781 /_ -157.1    1.0734     4.160        2-3     4.2961 /_ -125.2    1.0327
   -      3        2.511 /_   87.7    1.0455     4.160        3-1     3.4545 /_   89.4   0.83041
58 ...... 2       2.5671 /_ -157.3    1.0688     4.160
60 ...... 1      0.92957 /_  -86.6   0.38703     4.160        1-2     2.4163 /_    0.8   0.58085
   -      2       2.5493 /_ -157.9    1.0614     4.160        2-3      4.267 /_ -125.8    1.0257
   -      3        2.505 /_   87.0     1.043     4.160        3-1     3.4303 /_   88.7    0.8246
59 ...... 2       2.5663 /_ -157.4    1.0685     4.160
61 ...... 1      0.92957 /_  -86.6   0.38703     4.160        1-2     2.4163 /_    0.8   0.58085
   -      2       2.5493 /_ -157.9    1.0614     4.160        2-3      4.267 /_ -125.8    1.0257
   -      3        2.505 /_   87.0     1.043     4.160        3-1     3.4303 /_   88.7    0.8246
62 ...... 1      0.92895 /_  -86.6   0.38678     4.160        1-2     2.4136 /_    0.8    0.5802
   -      2       2.5462 /_ -157.8    1.0601     4.160        2-3     4.2611 /_ -125.8    1.0243
   -      3       2.5001 /_   87.0    1.0409     4.160        3-1     3.4248 /_   88.7   0.82326
63 ...... 1      0.92817 /_  -86.6   0.38645     4.160        1-2     2.4118 /_    0.8   0.57976
   -      2       2.5439 /_ -157.8    1.0592     4.160        2-3     4.2576 /_ -125.8    1.0235
   -      3       2.4978 /_   86.9      1.04     4.160        3-1     3.4216 /_   88.7    0.8225
64 ...... 1      0.92743 /_  -86.5   0.38614     4.160        1-2     2.4081 /_    0.8   0.57887
   -      2       2.5394 /_ -157.8    1.0573     4.160        2-3     4.2506 /_ -125.8    1.0218
   -      3       2.4928 /_   86.9    1.0379     4.160        3-1     3.4158 /_   88.7   0.82111
65 ...... 1      0.92714 /_  -86.5   0.38602     4.160        1-2     2.4065 /_    0.8   0.57849
   -      2       2.5387 /_ -157.8     1.057     4.160        2-3     4.2446 /_ -125.8    1.0203
   -      3        2.486 /_   86.9    1.0351     4.160        3-1     3.4088 /_   88.7   0.81942
66 ...... 1      0.92823 /_  -86.5   0.38648     4.160        1-2     2.4064 /_    0.8   0.57847
   -      2       2.5391 /_ -157.7    1.0572     4.160        2-3     4.2427 /_ -125.8    1.0199
   -      3       2.4825 /_   86.9    1.0336     4.160        3-1     3.4064 /_   88.7   0.81884
67 ...... 1      0.92473 /_  -86.7   0.38502     4.160        1-2     2.4132 /_    0.6    0.5801
   -      2       2.5442 /_ -158.1    1.0593     4.160        2-3     4.2614 /_ -125.9    1.0244
   -      3       2.5051 /_   86.8     1.043     4.160        3-1     3.4255 /_   88.5   0.82345
68 ...... 1      0.92327 /_  -86.8   0.38441     4.160
72 ...... 1      0.92311 /_  -86.8   0.38435     4.160        1-2     2.4122 /_    0.5   0.57985
   -      2       2.5423 /_ -158.2    1.0585     4.160        2-3     4.2599 /_ -126.0     1.024
   -      3       2.5066 /_   86.7    1.0436     4.160        3-1     3.4254 /_   88.4   0.82342
97 ...... 1      0.92357 /_  -86.7   0.38454     4.160        1-2     2.4113 /_    0.6   0.57965
   -      2       2.5416 /_ -158.1    1.0582     4.160        2-3      4.259 /_ -126.0    1.0238
   -      3       2.5041 /_   86.7    1.0426     4.160        3-1     3.4233 /_   88.5   0.82291
69 ...... 1       0.9216 /_  -86.8   0.38372     4.160
70 ...... 1      0.92042 /_  -86.8   0.38323     4.160
71 ...... 1      0.91976 /_  -86.8   0.38295     4.160
73 ...... 3       2.5015 /_   86.7    1.0415     4.160
76 ...... 1      0.92118 /_  -86.9   0.38354     4.160        1-2     2.4115 /_    0.4    0.5797
   -      2       2.5414 /_ -158.4    1.0581     4.160        2-3     4.2593 /_ -126.1    1.0239
   -      3       2.5096 /_   86.7    1.0449     4.160        3-1     3.4265 /_   88.4   0.82369
74 ...... 3        2.497 /_   86.6    1.0397     4.160
75 ...... 3       2.4946 /_   86.6    1.0386     4.160
77 ...... 1      0.91955 /_  -87.1   0.38286     4.160        1-2     2.4145 /_    0.3   0.58042
   -      2       2.5444 /_ -158.5    1.0594     4.160        2-3     4.2636 /_ -126.2    1.0249
   -      3       2.5141 /_   86.6    1.0468     4.160        3-1     3.4296 /_   88.3   0.82442
86 ...... 1      0.91723 /_  -87.0    0.3819     4.160        1-2     2.4092 /_    0.3   0.57914
   -      2       2.5361 /_ -158.6    1.0559     4.160        2-3      4.256 /_ -126.1    1.0231
   -      3       2.5146 /_   86.6     1.047     4.160        3-1     3.4276 /_   88.3   0.82393
78 ...... 1      0.91927 /_  -87.1   0.38275     4.160        1-2     2.4154 /_    0.3   0.58063
   -      2       2.5455 /_ -158.5    1.0598     4.160        2-3     4.2649 /_ -126.2    1.0252
   -      3       2.5151 /_   86.6    1.0472     4.160        3-1     3.4304 /_   88.3    0.8246
79 ...... 1        0.919 /_  -87.1   0.38263     4.160        1-2     2.4152 /_    0.3   0.58059
   -      2       2.5455 /_ -158.5    1.0598     4.160        2-3     4.2649 /_ -126.2    1.0252
   -      3       2.5152 /_   86.6    1.0472     4.160        3-1     3.4302 /_   88.3   0.82457
80 ...... 1      0.91849 /_  -87.2   0.38242     4.160        1-2     2.4199 /_    0.3    0.5817
   -      2       2.5504 /_ -158.7    1.0619     4.160        2-3     4.2712 /_ -126.3    1.0267
   -      3       2.5197 /_   86.6    1.0491     4.160        3-1     3.4342 /_   88.2   0.82554
81 ...... 1      0.91842 /_  -87.3   0.38239     4.160        1-2     2.4217 /_    0.2   0.58215
   -      2       2.5528 /_ -158.7    1.0629     4.160        2-3     4.2739 /_ -126.3    1.0274
   -      3       2.5211 /_   86.5    1.0497     4.160        3-1     3.4357 /_   88.2   0.82588
82 ...... 1      0.91782 /_  -87.4   0.38214     4.160        1-2     2.4243 /_    0.2   0.58277
   -      2       2.5563 /_ -158.7    1.0643     4.160        2-3     4.2781 /_ -126.3    1.0284
   -      3       2.5243 /_   86.5     1.051     4.160        3-1     3.4383 /_   88.2   0.82653
84 ...... 3        2.515 /_   86.5    1.0472     4.160
83 ...... 1      0.91751 /_  -87.5   0.38201     4.160        1-2     2.4271 /_    0.2   0.58344
   -      2       2.5598 /_ -158.8    1.0658     4.160        2-3     4.2824 /_ -126.4    1.0294
   -      3       2.5274 /_   86.5    1.0523     4.160        3-1     3.4412 /_   88.1   0.82721
85 ...... 3       2.5122 /_   86.5     1.046     4.160
87 ...... 1      0.91489 /_  -87.0   0.38092     4.160        1-2     2.4082 /_    0.2    0.5789
   -      2       2.5335 /_ -158.7    1.0549     4.160        2-3     4.2542 /_ -126.2    1.0226
   -      3       2.5171 /_   86.6     1.048     4.160        3-1     3.4277 /_   88.3   0.82397
88 ...... 1      0.91483 /_  -87.0    0.3809     4.160
89 ...... 1      0.91368 /_  -87.0   0.38042     4.160        1-2     2.4082 /_    0.2    0.5789
   -      2       2.5326 /_ -158.7    1.0545     4.160        2-3     4.2539 /_ -126.2    1.0226
   -      3       2.5183 /_   86.6    1.0485     4.160        3-1     3.4277 /_   88.3   0.82397
90 ...... 2       2.5324 /_ -158.7    1.0544     4.160
91 ...... 1        0.913 /_  -86.9   0.38014     4.160        1-2     2.4079 /_    0.2   0.57881
   -      2       2.5316 /_ -158.7    1.0541     4.160        2-3     4.2538 /_ -126.2    1.0225
   -      3        2.519 /_   86.5    1.0488     4.160        3-1     3.4277 /_   88.3   0.82396
92 ...... 3       2.5189 /_   86.5    1.0488     4.160
93 ...... 1      0.91246 /_  -86.9   0.37991     4.160        1-2     2.4074 /_    0.2   0.57871
   -      2        2.531 /_ -158.7    1.0538     4.160        2-3     4.2532 /_ -126.2    1.0224
   -      3       2.5195 /_   86.5     1.049     4.160        3-1     3.4276 /_   88.3   0.82393
94 ...... 1       0.9118 /_  -86.9   0.37964     4.160
95 ...... 1       0.9121 /_  -86.9   0.37976     4.160        1-2      2.407 /_    0.1   0.57862
   -      2       2.5301 /_ -158.7    1.0534     4.160        2-3     4.2525 /_ -126.2    1.0222
   -      3       2.5199 /_   86.5    1.0492     4.160        3-1     3.4276 /_   88.3   0.82394
96 ...... 2       2.5295 /_ -158.8    1.0532     4.160
98 ...... 1      0.92327 /_  -86.7   0.38441     4.160        1-2     2.4107 /_    0.6   0.57951
   -      2       2.5407 /_ -158.1    1.0578     4.160        2-3     4.2582 /_ -126.0    1.0236
   -      3       2.5038 /_   86.7    1.0425     4.160        3-1     3.4227 /_   88.5   0.82275
99 ...... 1      0.92334 /_  -86.7   0.38444     4.160        1-2     2.4099 /_    0.6   0.57931
   -      2       2.5386 /_ -158.1     1.057     4.160        2-3     4.2564 /_ -126.0    1.0232
   -      3       2.5029 /_   86.7    1.0421     4.160        3-1     3.4217 /_   88.5   0.82253
100 ..... 1      0.92374 /_  -86.6   0.38461     4.160        1-2     2.4099 /_    0.6   0.57929
   -      2       2.5384 /_ -158.1    1.0569     4.160        2-3     4.2562 /_ -126.0    1.0231
   -      3        2.502 /_   86.7    1.0417     4.160        3-1     3.4211 /_   88.5   0.82238
450 ..... 1      0.92374 /_  -86.6   0.38461     4.160        1-2     2.4099 /_    0.6   0.57929
   -      2       2.5384 /_ -158.1    1.0569     4.160        2-3     4.2562 /_ -126.0    1.0231
   -      3        2.502 /_   86.7    1.0417     4.160        3-1     3.4211 /_   88.5   0.82238
101 ..... 1      0.92269 /_  -86.7   0.38417     4.160        1-2       2.41 /_    0.6   0.57933
   -      2       2.5399 /_ -158.1    1.0575     4.160        2-3     4.2574 /_ -126.0    1.0234
   -      3       2.5034 /_   86.7    1.0423     4.160        3-1     3.4217 /_   88.5   0.82252
102 ..... 3          2.5 /_   86.7    1.0409     4.160
105 ..... 1      0.92087 /_  -86.8   0.38341     4.160        1-2     2.4087 /_    0.6   0.57901
   -      2       2.5385 /_ -158.2    1.0569     4.160        2-3     4.2562 /_ -126.0    1.0231
   -      3       2.5047 /_   86.7    1.0429     4.160        3-1     3.4212 /_   88.5   0.82241
103 ..... 3       2.4961 /_   86.6    1.0393     4.160
104 ..... 3       2.4918 /_   86.6    1.0375     4.160
106 ..... 2       2.5357 /_ -158.2    1.0558     4.160
108 ..... 1      0.91951 /_  -86.8   0.38284     4.160        1-2     2.4079 /_    0.6   0.57883
   -      2       2.5387 /_ -158.2     1.057     4.160        2-3     4.2562 /_ -126.0    1.0231
   -      3       2.5052 /_   86.7    1.0431     4.160        3-1     3.4204 /_   88.5   0.82222
107 ..... 2       2.5323 /_ -158.2    1.0543     4.160
109 ..... 1      0.91572 /_  -86.9   0.38127     4.160
300 ..... 1      0.91951 /_  -86.8   0.38284     4.160        1-2     2.4079 /_    0.6   0.57883
   -      2       2.5387 /_ -158.2     1.057     4.160        2-3     4.2562 /_ -126.0    1.0231
   -      3       2.5052 /_   86.7    1.0431     4.160        3-1     3.4204 /_   88.5   0.82222
110 ..... 1      0.91391 /_  -87.0   0.38052     4.160
111 ..... 1      0.91322 /_  -87.0   0.38023     4.160
112 ..... 1      0.91331 /_  -87.0   0.38027     4.160
113 ..... 1      0.91142 /_  -87.0   0.37948     4.160
114 ..... 1      0.91103 /_  -87.0   0.37932     4.160
